/*---------------------------------------------------------------------------*\
| =========                 |                                                 |
| \\      /  F ield         | OpenFOAM: The Open Source CFD Toolbox           |
|  \\    /   O peration     | Version:  2512                                  |
|   \\  /    A nd           | Website:  www.openfoam.com                      |
|    \\/     M anipulation  |                                                 |
\*---------------------------------------------------------------------------*/
Build  : _87ed40d256-20251219 OPENFOAM=2512 version=v2512
Arch   : "LSB;label=32;scalar=64"
Exec   : icoFoam
Date   : Jun 29 2026
Time   : 14:28:14
Host   : om
PID    : 17372
I/O    : uncollated
Case   : /home/om/OpenFOAM/om-v2512/run/openfoam-learning/tutorials/incompressible/icoFoam/cavity/cavityFine
nProcs : 1
trapFpe: Floating point exception trapping enabled (FOAM_SIGFPE).
memory pool : not available
fileModificationChecking : Monitoring run-time modified files using timeStampMaster (fileModificationSkew 5, maxFileModificationPolls 20)
allowSystemOperations : Allowing user-supplied system call operations

// * * * * * * * * * * * * * * * * * * * * * * * * * * * * * * * * * * * * * //
Create time

Create mesh for time = 0.5


PISO: Operating solver in PISO mode

Reading transportProperties

Reading field p

Reading field U

Reading/calculating face flux field phi


Starting time loop

Time = 0.5025

Courant Number mean: 0.221091 max: 0.814338
smoothSolver:  Solving for Ux, Initial residual = 0.32425, Final residual = 9.96235e-06, No Iterations 15
smoothSolver:  Solving for Uy, Initial residual = 0.429954, Final residual = 8.50673e-06, No Iterations 18
DICPCG:  Solving for p, Initial residual = 0.775338, Final residual = 0.0357089, No Iterations 13
time step continuity errors : sum local = 0.000208246, global = -4.53295e-20, cumulative = -4.53295e-20
DICPCG:  Solving for p, Initial residual = 0.39771, Final residual = 8.59106e-07, No Iterations 65
time step continuity errors : sum local = 3.268e-09, global = -3.85931e-19, cumulative = -4.31261e-19
ExecutionTime = 0 s  ClockTime = 1 s

Time = 0.505

Courant Number mean: 0.223177 max: 0.914792
smoothSolver:  Solving for Ux, Initial residual = 0.0354781, Final residual = 9.8263e-06, No Iterations 30
smoothSolver:  Solving for Uy, Initial residual = 0.0470795, Final residual = 8.30619e-06, No Iterations 25
DICPCG:  Solving for p, Initial residual = 0.520183, Final residual = 0.0227616, No Iterations 17
time step continuity errors : sum local = 0.000111993, global = 2.58577e-19, cumulative = -1.72684e-19
DICPCG:  Solving for p, Initial residual = 0.466903, Final residual = 7.48958e-07, No Iterations 66
time step continuity errors : sum local = 2.56566e-09, global = -2.23644e-19, cumulative = -3.96328e-19
ExecutionTime = 0.01 s  ClockTime = 1 s

Time = 0.5075

Courant Number mean: 0.224131 max: 0.925933
smoothSolver:  Solving for Ux, Initial residual = 0.0154554, Final residual = 9.55845e-06, No Iterations 28
smoothSolver:  Solving for Uy, Initial residual = 0.0248386, Final residual = 8.85059e-06, No Iterations 28
DICPCG:  Solving for p, Initial residual = 0.319805, Final residual = 0.0135077, No Iterations 44
time step continuity errors : sum local = 4.09462e-05, global = -3.55233e-19, cumulative = -7.51561e-19
DICPCG:  Solving for p, Initial residual = 0.218028, Final residual = 9.11527e-07, No Iterations 61
time step continuity errors : sum local = 3.49021e-09, global = 3.05731e-19, cumulative = -4.4583e-19
ExecutionTime = 0.01 s  ClockTime = 1 s

Time = 0.51

Courant Number mean: 0.224426 max: 0.925332
smoothSolver:  Solving for Ux, Initial residual = 0.00470809, Final residual = 7.77454e-06, No Iterations 21
smoothSolver:  Solving for Uy, Initial residual = 0.0107727, Final residual = 9.56929e-06, No Iterations 23
DICPCG:  Solving for p, Initial residual = 0.139712, Final residual = 0.00695389, No Iterations 38
time step continuity errors : sum local = 1.74241e-05, global = 4.88037e-21, cumulative = -4.40949e-19
DICPCG:  Solving for p, Initial residual = 0.1121, Final residual = 5.56989e-07, No Iterations 63
time step continuity errors : sum local = 1.47529e-09, global = -1.33383e-19, cumulative = -5.74332e-19
ExecutionTime = 0.01 s  ClockTime = 1 s

Time = 0.5125

Courant Number mean: 0.224425 max: 0.926152
smoothSolver:  Solving for Ux, Initial residual = 0.00103848, Final residual = 8.14993e-06, No Iterations 14
smoothSolver:  Solving for Uy, Initial residual = 0.00599737, Final residual = 9.32642e-06, No Iterations 25
DICPCG:  Solving for p, Initial residual = 0.0618801, Final residual = 0.00198858, No Iterations 38
time step continuity errors : sum local = 4.54273e-06, global = 5.62069e-20, cumulative = -5.18125e-19
DICPCG:  Solving for p, Initial residual = 0.0521824, Final residual = 6.13354e-07, No Iterations 61
time step continuity errors : sum local = 1.43268e-09, global = -2.91137e-19, cumulative = -8.09262e-19
ExecutionTime = 0.02 s  ClockTime = 1 s

Time = 0.515

Courant Number mean: 0.224541 max: 0.926127
smoothSolver:  Solving for Ux, Initial residual = 0.000428861, Final residual = 7.9038e-06, No Iterations 12
smoothSolver:  Solving for Uy, Initial residual = 0.00166454, Final residual = 8.28408e-06, No Iterations 18
DICPCG:  Solving for p, Initial residual = 0.0179584, Final residual = 0.000695912, No Iterations 43
time step continuity errors : sum local = 1.55126e-06, global = -6.2759e-19, cumulative = -1.43685e-18
DICPCG:  Solving for p, Initial residual = 0.0144907, Final residual = 8.97576e-07, No Iterations 59
time step continuity errors : sum local = 1.99967e-09, global = 3.56396e-19, cumulative = -1.08046e-18
ExecutionTime = 0.02 s  ClockTime = 1 s

Time = 0.5175

Courant Number mean: 0.224612 max: 0.926263
smoothSolver:  Solving for Ux, Initial residual = 0.000175907, Final residual = 9.43286e-06, No Iterations 8
smoothSolver:  Solving for Uy, Initial residual = 0.000440966, Final residual = 7.65402e-06, No Iterations 12
DICPCG:  Solving for p, Initial residual = 0.00596641, Final residual = 0.000297556, No Iterations 16
time step continuity errors : sum local = 8.7765e-07, global = 6.50474e-19, cumulative = -4.29981e-19
DICPCG:  Solving for p, Initial residual = 0.00468564, Final residual = 9.62764e-07, No Iterations 55
time step continuity errors : sum local = 2.14727e-09, global = 3.2503e-19, cumulative = -1.04951e-19
ExecutionTime = 0.02 s  ClockTime = 1 s

Time = 0.52

Courant Number mean: 0.224658 max: 0.926291
smoothSolver:  Solving for Ux, Initial residual = 0.000168644, Final residual = 9.29459e-06, No Iterations 10
smoothSolver:  Solving for Uy, Initial residual = 0.000396069, Final residual = 9.76154e-06, No Iterations 13
DICPCG:  Solving for p, Initial residual = 0.00346603, Final residual = 0.000159652, No Iterations 38
time step continuity errors : sum local = 3.52707e-07, global = -1.75605e-19, cumulative = -2.80556e-19
DICPCG:  Solving for p, Initial residual = 0.00296652, Final residual = 5.50248e-07, No Iterations 55
time step continuity errors : sum local = 1.21777e-09, global = 6.2875e-19, cumulative = 3.48194e-19
ExecutionTime = 0.03 s  ClockTime = 1 s

Time = 0.5225

Courant Number mean: 0.224693 max: 0.926336
smoothSolver:  Solving for Ux, Initial residual = 9.43332e-05, Final residual = 9.88839e-06, No Iterations 7
smoothSolver:  Solving for Uy, Initial residual = 0.000203368, Final residual = 8.53758e-06, No Iterations 10
DICPCG:  Solving for p, Initial residual = 0.00156854, Final residual = 6.71903e-05, No Iterations 43
time step continuity errors : sum local = 1.49711e-07, global = 1.0879e-19, cumulative = 4.56984e-19
DICPCG:  Solving for p, Initial residual = 0.00134652, Final residual = 8.62372e-07, No Iterations 53
time step continuity errors : sum local = 1.90523e-09, global = -5.19423e-19, cumulative = -6.24392e-20
ExecutionTime = 0.03 s  ClockTime = 1 s

Time = 0.525

Courant Number mean: 0.22472 max: 0.926356
smoothSolver:  Solving for Ux, Initial residual = 5.16818e-05, Final residual = 8.1179e-06, No Iterations 6
smoothSolver:  Solving for Uy, Initial residual = 0.000118023, Final residual = 8.34015e-06, No Iterations 9
DICPCG:  Solving for p, Initial residual = 0.000601313, Final residual = 2.89824e-05, No Iterations 43
time step continuity errors : sum local = 6.45978e-08, global = -5.75976e-20, cumulative = -1.20037e-19
DICPCG:  Solving for p, Initial residual = 0.000517653, Final residual = 5.5314e-07, No Iterations 52
time step continuity errors : sum local = 1.22046e-09, global = -5.43003e-19, cumulative = -6.6304e-19
ExecutionTime = 0.03 s  ClockTime = 1 s

Time = 0.5275

Courant Number mean: 0.22474 max: 0.926381
smoothSolver:  Solving for Ux, Initial residual = 3.99345e-05, Final residual = 8.96542e-06, No Iterations 5
smoothSolver:  Solving for Uy, Initial residual = 7.84734e-05, Final residual = 9.94358e-06, No Iterations 7
DICPCG:  Solving for p, Initial residual = 0.00025683, Final residual = 1.23402e-05, No Iterations 37
time step continuity errors : sum local = 2.8212e-08, global = -2.87854e-19, cumulative = -9.50893e-19
DICPCG:  Solving for p, Initial residual = 0.000221511, Final residual = 9.17062e-07, No Iterations 48
time step continuity errors : sum local = 2.03059e-09, global = -1.7742e-19, cumulative = -1.12831e-18
ExecutionTime = 0.03 s  ClockTime = 1 s

Time = 0.53

Courant Number mean: 0.224755 max: 0.926394
smoothSolver:  Solving for Ux, Initial residual = 3.21741e-05, Final residual = 9.9957e-06, No Iterations 4
smoothSolver:  Solving for Uy, Initial residual = 6.11908e-05, Final residual = 8.18956e-06, No Iterations 7
DICPCG:  Solving for p, Initial residual = 0.000192358, Final residual = 8.66363e-06, No Iterations 20
time step continuity errors : sum local = 2.17435e-08, global = -1.57733e-20, cumulative = -1.14409e-18
DICPCG:  Solving for p, Initial residual = 0.000176739, Final residual = 9.40273e-07, No Iterations 47
time step continuity errors : sum local = 2.07526e-09, global = 1.47822e-19, cumulative = -9.96264e-19
ExecutionTime = 0.04 s  ClockTime = 1 s

Time = 0.5325

Courant Number mean: 0.224767 max: 0.926405
smoothSolver:  Solving for Ux, Initial residual = 2.77784e-05, Final residual = 8.66412e-06, No Iterations 4
smoothSolver:  Solving for Uy, Initial residual = 4.9334e-05, Final residual = 8.76266e-06, No Iterations 6
DICPCG:  Solving for p, Initial residual = 0.00012284, Final residual = 3.33827e-06, No Iterations 37
time step continuity errors : sum local = 7.37311e-09, global = -5.80577e-20, cumulative = -1.05432e-18
DICPCG:  Solving for p, Initial residual = 0.00011341, Final residual = 9.70968e-07, No Iterations 42
time step continuity errors : sum local = 2.17968e-09, global = 4.18812e-19, cumulative = -6.3551e-19
ExecutionTime = 0.04 s  ClockTime = 1 s

Time = 0.535

Courant Number mean: 0.224776 max: 0.926413
smoothSolver:  Solving for Ux, Initial residual = 2.32279e-05, Final residual = 9.76254e-06, No Iterations 3
smoothSolver:  Solving for Uy, Initial residual = 4.12181e-05, Final residual = 9.9954e-06, No Iterations 5
DICPCG:  Solving for p, Initial residual = 0.000119407, Final residual = 4.84096e-06, No Iterations 21
time step continuity errors : sum local = 1.37517e-08, global = 2.83707e-19, cumulative = -3.51802e-19
DICPCG:  Solving for p, Initial residual = 0.000114359, Final residual = 9.59405e-07, No Iterations 46
time step continuity errors : sum local = 2.12643e-09, global = -2.12342e-19, cumulative = -5.64145e-19
ExecutionTime = 0.04 s  ClockTime = 1 s

Time = 0.5375

Courant Number mean: 0.224783 max: 0.926419
smoothSolver:  Solving for Ux, Initial residual = 2.09347e-05, Final residual = 8.76365e-06, No Iterations 3
smoothSolver:  Solving for Uy, Initial residual = 3.4741e-05, Final residual = 8.25204e-06, No Iterations 5
DICPCG:  Solving for p, Initial residual = 0.00010555, Final residual = 3.08474e-06, No Iterations 37
time step continuity errors : sum local = 6.78809e-09, global = -1.61734e-19, cumulative = -7.25879e-19
DICPCG:  Solving for p, Initial residual = 9.97661e-05, Final residual = 7.69079e-07, No Iterations 41
time step continuity errors : sum local = 1.71037e-09, global = 3.52472e-19, cumulative = -3.73407e-19
ExecutionTime = 0.04 s  ClockTime = 1 s

Time = 0.54

Courant Number mean: 0.224789 max: 0.926424
smoothSolver:  Solving for Ux, Initial residual = 1.77969e-05, Final residual = 7.52023e-06, No Iterations 3
smoothSolver:  Solving for Uy, Initial residual = 2.98039e-05, Final residual = 9.562e-06, No Iterations 4
DICPCG:  Solving for p, Initial residual = 5.3216e-05, Final residual = 2.19701e-06, No Iterations 42
time step continuity errors : sum local = 4.90256e-09, global = -1.03485e-19, cumulative = -4.76893e-19
DICPCG:  Solving for p, Initial residual = 4.97134e-05, Final residual = 6.07358e-07, No Iterations 46
time step continuity errors : sum local = 1.34073e-09, global = -4.57534e-20, cumulative = -5.22646e-19
ExecutionTime = 0.05 s  ClockTime = 1 s

Time = 0.5425

Courant Number mean: 0.224794 max: 0.926427
smoothSolver:  Solving for Ux, Initial residual = 1.55446e-05, Final residual = 8.78949e-06, No Iterations 2
smoothSolver:  Solving for Uy, Initial residual = 2.55263e-05, Final residual = 8.26909e-06, No Iterations 4
DICPCG:  Solving for p, Initial residual = 9.46373e-05, Final residual = 3.21197e-06, No Iterations 14
time step continuity errors : sum local = 7.14696e-09, global = 4.83699e-19, cumulative = -3.89473e-20
DICPCG:  Solving for p, Initial residual = 9.17908e-05, Final residual = 7.27637e-07, No Iterations 17
time step continuity errors : sum local = 1.80861e-09, global = -5.4459e-19, cumulative = -5.83537e-19
ExecutionTime = 0.05 s  ClockTime = 1 s

Time = 0.545

Courant Number mean: 0.224798 max: 0.926431
smoothSolver:  Solving for Ux, Initial residual = 1.42274e-05, Final residual = 8.03299e-06, No Iterations 2
smoothSolver:  Solving for Uy, Initial residual = 2.22372e-05, Final residual = 9.44154e-06, No Iterations 3
DICPCG:  Solving for p, Initial residual = 4.59127e-05, Final residual = 2.16409e-06, No Iterations 15
time step continuity errors : sum local = 4.7959e-09, global = 2.39184e-19, cumulative = -3.44353e-19
DICPCG:  Solving for p, Initial residual = 4.37808e-05, Final residual = 7.52584e-07, No Iterations 21
time step continuity errors : sum local = 1.77399e-09, global = 1.29666e-19, cumulative = -2.14687e-19
ExecutionTime = 0.05 s  ClockTime = 1 s

Time = 0.5475

Courant Number mean: 0.224801 max: 0.926433
smoothSolver:  Solving for Ux, Initial residual = 1.26141e-05, Final residual = 9.50031e-06, No Iterations 1
smoothSolver:  Solving for Uy, Initial residual = 1.98473e-05, Final residual = 8.50155e-06, No Iterations 3
DICPCG:  Solving for p, Initial residual = 9.35228e-05, Final residual = 4.53797e-06, No Iterations 13
time step continuity errors : sum local = 1.05425e-08, global = -1.06065e-19, cumulative = -3.20752e-19
DICPCG:  Solving for p, Initial residual = 9.25837e-05, Final residual = 9.32431e-07, No Iterations 17
time step continuity errors : sum local = 2.63114e-09, global = 1.27929e-19, cumulative = -1.92824e-19
ExecutionTime = 0.05 s  ClockTime = 1 s

Time = 0.55

Courant Number mean: 0.224803 max: 0.926435
smoothSolver:  Solving for Ux, Initial residual = 1.20174e-05, Final residual = 9.03354e-06, No Iterations 1
smoothSolver:  Solving for Uy, Initial residual = 1.77822e-05, Final residual = 9.93445e-06, No Iterations 2
DICPCG:  Solving for p, Initial residual = 4.67851e-05, Final residual = 2.16429e-06, No Iterations 18
time step continuity errors : sum local = 4.89485e-09, global = -3.96462e-19, cumulative = -5.89286e-19
DICPCG:  Solving for p, Initial residual = 4.54438e-05, Final residual = 7.61575e-07, No Iterations 21
time step continuity errors : sum local = 1.90008e-09, global = -3.21592e-19, cumulative = -9.10878e-19
ExecutionTime = 0.05 s  ClockTime = 1 s

Time = 0.5525

Courant Number mean: 0.224805 max: 0.926436
smoothSolver:  Solving for Ux, Initial residual = 1.09858e-05, Final residual = 8.27436e-06, No Iterations 1
smoothSolver:  Solving for Uy, Initial residual = 1.64938e-05, Final residual = 9.29554e-06, No Iterations 2
DICPCG:  Solving for p, Initial residual = 4.4385e-05, Final residual = 1.93701e-06, No Iterations 14
time step continuity errors : sum local = 4.85827e-09, global = -2.19875e-20, cumulative = -9.32866e-19
DICPCG:  Solving for p, Initial residual = 4.32379e-05, Final residual = 9.49066e-07, No Iterations 15
time step continuity errors : sum local = 2.63554e-09, global = 4.16909e-19, cumulative = -5.15956e-19
ExecutionTime = 0.05 s  ClockTime = 1 s

Time = 0.555

Courant Number mean: 0.224807 max: 0.926437
smoothSolver:  Solving for Ux, Initial residual = 1.02979e-05, Final residual = 7.74769e-06, No Iterations 1
smoothSolver:  Solving for Uy, Initial residual = 1.51515e-05, Final residual = 8.53082e-06, No Iterations 2
DICPCG:  Solving for p, Initial residual = 4.08307e-05, Final residual = 2.00513e-06, No Iterations 15
time step continuity errors : sum local = 4.62931e-09, global = -3.90326e-20, cumulative = -5.54989e-19
DICPCG:  Solving for p, Initial residual = 3.97555e-05, Final residual = 9.82872e-07, No Iterations 15
time step continuity errors : sum local = 2.42962e-09, global = -1.32483e-19, cumulative = -6.87472e-19
ExecutionTime = 0.05 s  ClockTime = 1 s

Time = 0.5575

Courant Number mean: 0.224808 max: 0.926439
smoothSolver:  Solving for Ux, Initial residual = 9.5355e-06, Final residual = 9.5355e-06, No Iterations 0
smoothSolver:  Solving for Uy, Initial residual = 1.4054e-05, Final residual = 7.95481e-06, No Iterations 2
DICPCG:  Solving for p, Initial residual = 8.81025e-05, Final residual = 3.8454e-06, No Iterations 18
time step continuity errors : sum local = 9.52772e-09, global = 5.16993e-19, cumulative = -1.70479e-19
DICPCG:  Solving for p, Initial residual = 8.72796e-05, Final residual = 8.46421e-07, No Iterations 26
time step continuity errors : sum local = 2.50272e-09, global = 7.55841e-19, cumulative = 5.85362e-19
ExecutionTime = 0.05 s  ClockTime = 1 s

Time = 0.56

Courant Number mean: 0.224809 max: 0.92644
smoothSolver:  Solving for Ux, Initial residual = 9.41365e-06, Final residual = 9.41365e-06, No Iterations 0
smoothSolver:  Solving for Uy, Initial residual = 1.26405e-05, Final residual = 9.30101e-06, No Iterations 1
DICPCG:  Solving for p, Initial residual = 4.61299e-05, Final residual = 1.7024e-06, No Iterations 13
time step continuity errors : sum local = 4.06023e-09, global = 6.63569e-19, cumulative = 1.24893e-18
DICPCG:  Solving for p, Initial residual = 4.64714e-05, Final residual = 9.95524e-07, No Iterations 14
time step continuity errors : sum local = 2.46441e-09, global = -1.59599e-19, cumulative = 1.08933e-18
ExecutionTime = 0.06 s  ClockTime = 1 s

Time = 0.5625

Courant Number mean: 0.22481 max: 0.92644
smoothSolver:  Solving for Ux, Initial residual = 9.05359e-06, Final residual = 9.05359e-06, No Iterations 0
smoothSolver:  Solving for Uy, Initial residual = 1.24996e-05, Final residual = 9.27781e-06, No Iterations 1
DICPCG:  Solving for p, Initial residual = 4.57314e-05, Final residual = 1.71581e-06, No Iterations 13
time step continuity errors : sum local = 4.20162e-09, global = 2.16856e-19, cumulative = 1.30619e-18
DICPCG:  Solving for p, Initial residual = 4.55596e-05, Final residual = 8.73366e-07, No Iterations 14
time step continuity errors : sum local = 2.29181e-09, global = 8.25283e-19, cumulative = 2.13147e-18
ExecutionTime = 0.06 s  ClockTime = 1 s

Time = 0.565

Courant Number mean: 0.224811 max: 0.926441
smoothSolver:  Solving for Ux, Initial residual = 8.74529e-06, Final residual = 8.74529e-06, No Iterations 0
smoothSolver:  Solving for Uy, Initial residual = 1.18939e-05, Final residual = 8.8144e-06, No Iterations 1
DICPCG:  Solving for p, Initial residual = 4.35488e-05, Final residual = 2.03371e-06, No Iterations 13
time step continuity errors : sum local = 4.77344e-09, global = -2.28617e-19, cumulative = 1.90285e-18
DICPCG:  Solving for p, Initial residual = 4.35889e-05, Final residual = 8.9014e-07, No Iterations 14
time step continuity errors : sum local = 2.17268e-09, global = -3.64921e-19, cumulative = 1.53793e-18
ExecutionTime = 0.06 s  ClockTime = 1 s

Time = 0.5675

Courant Number mean: 0.224811 max: 0.926441
smoothSolver:  Solving for Ux, Initial residual = 8.4968e-06, Final residual = 8.4968e-06, No Iterations 0
smoothSolver:  Solving for Uy, Initial residual = 1.15044e-05, Final residual = 8.54765e-06, No Iterations 1
DICPCG:  Solving for p, Initial residual = 4.21664e-05, Final residual = 1.94485e-06, No Iterations 14
time step continuity errors : sum local = 4.70977e-09, global = -3.85378e-19, cumulative = 1.15255e-18
DICPCG:  Solving for p, Initial residual = 4.18917e-05, Final residual = 7.98433e-07, No Iterations 15
time step continuity errors : sum local = 2.1262e-09, global = 4.99824e-19, cumulative = 1.65238e-18
ExecutionTime = 0.06 s  ClockTime = 1 s

Time = 0.57

Courant Number mean: 0.224812 max: 0.926442
smoothSolver:  Solving for Ux, Initial residual = 8.22701e-06, Final residual = 8.22701e-06, No Iterations 0
smoothSolver:  Solving for Uy, Initial residual = 1.09815e-05, Final residual = 8.12677e-06, No Iterations 1
DICPCG:  Solving for p, Initial residual = 3.98951e-05, Final residual = 1.75336e-06, No Iterations 18
time step continuity errors : sum local = 4.01645e-09, global = -4.05122e-19, cumulative = 1.24726e-18
DICPCG:  Solving for p, Initial residual = 4.00181e-05, Final residual = 6.38681e-07, No Iterations 21
time step continuity errors : sum local = 1.53616e-09, global = -6.8839e-19, cumulative = 5.58866e-19
ExecutionTime = 0.06 s  ClockTime = 1 s

Time = 0.5725

Courant Number mean: 0.224813 max: 0.926442
smoothSolver:  Solving for Ux, Initial residual = 7.96096e-06, Final residual = 7.96096e-06, No Iterations 0
smoothSolver:  Solving for Uy, Initial residual = 1.05671e-05, Final residual = 7.82987e-06, No Iterations 1
DICPCG:  Solving for p, Initial residual = 3.90586e-05, Final residual = 1.56572e-06, No Iterations 13
time step continuity errors : sum local = 3.76497e-09, global = -5.40635e-19, cumulative = 1.82316e-20
DICPCG:  Solving for p, Initial residual = 3.91839e-05, Final residual = 7.75227e-07, No Iterations 14
time step continuity errors : sum local = 1.95465e-09, global = -6.31671e-19, cumulative = -6.1344e-19
ExecutionTime = 0.06 s  ClockTime = 1 s

Time = 0.575

Courant Number mean: 0.224813 max: 0.926442
smoothSolver:  Solving for Ux, Initial residual = 7.69936e-06, Final residual = 7.69936e-06, No Iterations 0
smoothSolver:  Solving for Uy, Initial residual = 1.01053e-05, Final residual = 7.48066e-06, No Iterations 1
DICPCG:  Solving for p, Initial residual = 3.75145e-05, Final residual = 1.4438e-06, No Iterations 13
time step continuity errors : sum local = 3.43379e-09, global = 2.87864e-19, cumulative = -3.25576e-19
DICPCG:  Solving for p, Initial residual = 3.74504e-05, Final residual = 6.96131e-07, No Iterations 14
time step continuity errors : sum local = 1.70231e-09, global = -5.86326e-19, cumulative = -9.11902e-19
ExecutionTime = 0.06 s  ClockTime = 1 s

Time = 0.5775

Courant Number mean: 0.224814 max: 0.926443
smoothSolver:  Solving for Ux, Initial residual = 7.48072e-06, Final residual = 7.48072e-06, No Iterations 0
smoothSolver:  Solving for Uy, Initial residual = 9.76196e-06, Final residual = 9.76196e-06, No Iterations 0
DICPCG:  Solving for p, Initial residual = 1.59437e-06, Final residual = 9.32827e-07, No Iterations 6
time step continuity errors : sum local = 2.14742e-09, global = 4.66633e-20, cumulative = -8.65239e-19
DICPCG:  Solving for p, Initial residual = 1.53878e-06, Final residual = 9.48638e-07, No Iterations 5
time step continuity errors : sum local = 2.16163e-09, global = -1.86405e-19, cumulative = -1.05164e-18
ExecutionTime = 0.06 s  ClockTime = 1 s

Time = 0.58

Courant Number mean: 0.224814 max: 0.926443
smoothSolver:  Solving for Ux, Initial residual = 7.19983e-06, Final residual = 7.19983e-06, No Iterations 0
smoothSolver:  Solving for Uy, Initial residual = 9.60996e-06, Final residual = 9.60996e-06, No Iterations 0
DICPCG:  Solving for p, Initial residual = 1.6776e-06, Final residual = 6.85305e-07, No Iterations 4
time step continuity errors : sum local = 1.59946e-09, global = -6.6966e-19, cumulative = -1.7213e-18
DICPCG:  Solving for p, Initial residual = 1.15864e-06, Final residual = 8.94566e-07, No Iterations 2
time step continuity errors : sum local = 2.05804e-09, global = 4.44884e-19, cumulative = -1.27642e-18
ExecutionTime = 0.06 s  ClockTime = 1 s

Time = 0.5825

Courant Number mean: 0.224814 max: 0.926443
smoothSolver:  Solving for Ux, Initial residual = 6.95991e-06, Final residual = 6.95991e-06, No Iterations 0
smoothSolver:  Solving for Uy, Initial residual = 9.49273e-06, Final residual = 9.49273e-06, No Iterations 0
DICPCG:  Solving for p, Initial residual = 1.54292e-06, Final residual = 8.17569e-07, No Iterations 1
time step continuity errors : sum local = 1.88583e-09, global = 4.91082e-19, cumulative = -7.85338e-19
DICPCG:  Solving for p, Initial residual = 1.0384e-06, Final residual = 8.01085e-07, No Iterations 2
time step continuity errors : sum local = 1.84773e-09, global = -4.05091e-19, cumulative = -1.19043e-18
ExecutionTime = 0.06 s  ClockTime = 1 s

Time = 0.585

Courant Number mean: 0.224815 max: 0.926443
smoothSolver:  Solving for Ux, Initial residual = 6.73794e-06, Final residual = 6.73794e-06, No Iterations 0
smoothSolver:  Solving for Uy, Initial residual = 9.28313e-06, Final residual = 9.28313e-06, No Iterations 0
DICPCG:  Solving for p, Initial residual = 1.20594e-06, Final residual = 8.00889e-07, No Iterations 1
time step continuity errors : sum local = 1.84505e-09, global = 4.09108e-19, cumulative = -7.81321e-19
DICPCG:  Solving for p, Initial residual = 1.32348e-06, Final residual = 9.00221e-07, No Iterations 1
time step continuity errors : sum local = 2.0646e-09, global = 6.27515e-19, cumulative = -1.53806e-19
ExecutionTime = 0.07 s  ClockTime = 1 s

Time = 0.5875

Courant Number mean: 0.224815 max: 0.926443
smoothSolver:  Solving for Ux, Initial residual = 6.56934e-06, Final residual = 6.56934e-06, No Iterations 0
smoothSolver:  Solving for Uy, Initial residual = 9.07764e-06, Final residual = 9.07764e-06, No Iterations 0
DICPCG:  Solving for p, Initial residual = 1.30893e-06, Final residual = 9.8223e-07, No Iterations 4
time step continuity errors : sum local = 2.25618e-09, global = 7.81076e-19, cumulative = 6.27269e-19
DICPCG:  Solving for p, Initial residual = 1.54894e-06, Final residual = 9.23244e-07, No Iterations 3
time step continuity errors : sum local = 2.14799e-09, global = -4.25791e-20, cumulative = 5.8469e-19
ExecutionTime = 0.07 s  ClockTime = 1 s

Time = 0.59

Courant Number mean: 0.224815 max: 0.926443
smoothSolver:  Solving for Ux, Initial residual = 6.3831e-06, Final residual = 6.3831e-06, No Iterations 0
smoothSolver:  Solving for Uy, Initial residual = 8.95841e-06, Final residual = 8.95841e-06, No Iterations 0
DICPCG:  Solving for p, Initial residual = 1.56095e-06, Final residual = 9.44023e-07, No Iterations 2
time step continuity errors : sum local = 2.20746e-09, global = -5.70067e-19, cumulative = 1.4623e-20
DICPCG:  Solving for p, Initial residual = 1.67077e-06, Final residual = 9.78717e-07, No Iterations 1
time step continuity errors : sum local = 2.28183e-09, global = -2.24104e-19, cumulative = -2.09481e-19
ExecutionTime = 0.07 s  ClockTime = 1 s

Time = 0.5925

Courant Number mean: 0.224816 max: 0.926444
smoothSolver:  Solving for Ux, Initial residual = 6.21381e-06, Final residual = 6.21381e-06, No Iterations 0
smoothSolver:  Solving for Uy, Initial residual = 8.66966e-06, Final residual = 8.66966e-06, No Iterations 0
DICPCG:  Solving for p, Initial residual = 1.41281e-06, Final residual = 9.01785e-07, No Iterations 1
time step continuity errors : sum local = 2.11643e-09, global = 9.37247e-20, cumulative = -1.15756e-19
DICPCG:  Solving for p, Initial residual = 1.2857e-06, Final residual = 9.61254e-07, No Iterations 7
time step continuity errors : sum local = 2.27404e-09, global = 4.37496e-19, cumulative = 3.2174e-19
ExecutionTime = 0.07 s  ClockTime = 1 s

Time = 0.595

Courant Number mean: 0.224816 max: 0.926444
smoothSolver:  Solving for Ux, Initial residual = 6.09013e-06, Final residual = 6.09013e-06, No Iterations 0
smoothSolver:  Solving for Uy, Initial residual = 8.39691e-06, Final residual = 8.39691e-06, No Iterations 0
DICPCG:  Solving for p, Initial residual = 1.62822e-06, Final residual = 8.81797e-07, No Iterations 3
time step continuity errors : sum local = 2.11983e-09, global = 4.72129e-19, cumulative = 7.93869e-19
DICPCG:  Solving for p, Initial residual = 1.57653e-06, Final residual = 8.33171e-07, No Iterations 2
time step continuity errors : sum local = 2.02294e-09, global = 2.6872e-19, cumulative = 1.06259e-18
ExecutionTime = 0.07 s  ClockTime = 1 s

Time = 0.5975

Courant Number mean: 0.224816 max: 0.926444
smoothSolver:  Solving for Ux, Initial residual = 5.89884e-06, Final residual = 5.89884e-06, No Iterations 0
smoothSolver:  Solving for Uy, Initial residual = 8.2102e-06, Final residual = 8.2102e-06, No Iterations 0
DICPCG:  Solving for p, Initial residual = 1.50832e-06, Final residual = 7.55125e-07, No Iterations 8
time step continuity errors : sum local = 1.82215e-09, global = 8.76501e-20, cumulative = 1.15024e-18
DICPCG:  Solving for p, Initial residual = 1.29493e-06, Final residual = 8.60134e-07, No Iterations 5
time step continuity errors : sum local = 2.02421e-09, global = 1.4654e-19, cumulative = 1.29678e-18
ExecutionTime = 0.07 s  ClockTime = 1 s

Time = 0.6

Courant Number mean: 0.224817 max: 0.926444
smoothSolver:  Solving for Ux, Initial residual = 5.69809e-06, Final residual = 5.69809e-06, No Iterations 0
smoothSolver:  Solving for Uy, Initial residual = 7.97326e-06, Final residual = 7.97326e-06, No Iterations 0
DICPCG:  Solving for p, Initial residual = 1.54209e-06, Final residual = 9.81231e-07, No Iterations 6
time step continuity errors : sum local = 2.30203e-09, global = 5.59531e-19, cumulative = 1.85631e-18
DICPCG:  Solving for p, Initial residual = 1.4409e-06, Final residual = 7.24181e-07, No Iterations 3
time step continuity errors : sum local = 1.74557e-09, global = 4.13306e-19, cumulative = 2.26962e-18
ExecutionTime = 0.07 s  ClockTime = 1 s

Time = 0.6025

Courant Number mean: 0.224817 max: 0.926444
smoothSolver:  Solving for Ux, Initial residual = 5.56367e-06, Final residual = 5.56367e-06, No Iterations 0
smoothSolver:  Solving for Uy, Initial residual = 7.78663e-06, Final residual = 7.78663e-06, No Iterations 0
DICPCG:  Solving for p, Initial residual = 1.3483e-06, Final residual = 9.50959e-07, No Iterations 1
time step continuity errors : sum local = 2.24887e-09, global = 3.26271e-19, cumulative = 2.59589e-18
DICPCG:  Solving for p, Initial residual = 1.24006e-06, Final residual = 6.63384e-07, No Iterations 1
time step continuity errors : sum local = 1.61552e-09, global = 3.0616e-20, cumulative = 2.6265e-18
ExecutionTime = 0.07 s  ClockTime = 1 s

Time = 0.605

Courant Number mean: 0.224817 max: 0.926444
smoothSolver:  Solving for Ux, Initial residual = 5.42657e-06, Final residual = 5.42657e-06, No Iterations 0
smoothSolver:  Solving for Uy, Initial residual = 7.6394e-06, Final residual = 7.6394e-06, No Iterations 0
DICPCG:  Solving for p, Initial residual = 9.73606e-07, Final residual = 9.73606e-07, No Iterations 0
time step continuity errors : sum local = 2.30067e-09, global = -8.83331e-19, cumulative = 1.74317e-18
DICPCG:  Solving for p, Initial residual = 1.3405e-06, Final residual = 9.4221e-07, No Iterations 8
time step continuity errors : sum local = 2.28291e-09, global = -1.18804e-20, cumulative = 1.73129e-18
ExecutionTime = 0.07 s  ClockTime = 1 s

Time = 0.6075

Courant Number mean: 0.224817 max: 0.926445
smoothSolver:  Solving for Ux, Initial residual = 5.30145e-06, Final residual = 5.30145e-06, No Iterations 0
smoothSolver:  Solving for Uy, Initial residual = 7.50333e-06, Final residual = 7.50333e-06, No Iterations 0
DICPCG:  Solving for p, Initial residual = 1.5357e-06, Final residual = 7.92152e-07, No Iterations 4
time step continuity errors : sum local = 1.96447e-09, global = -7.74422e-19, cumulative = 9.5687e-19
DICPCG:  Solving for p, Initial residual = 1.18384e-06, Final residual = 9.29636e-07, No Iterations 2
time step continuity errors : sum local = 2.28392e-09, global = -1.74556e-19, cumulative = 7.82314e-19
ExecutionTime = 0.07 s  ClockTime = 1 s

Time = 0.61

Courant Number mean: 0.224818 max: 0.926445
smoothSolver:  Solving for Ux, Initial residual = 5.15e-06, Final residual = 5.15e-06, No Iterations 0
smoothSolver:  Solving for Uy, Initial residual = 7.26142e-06, Final residual = 7.26142e-06, No Iterations 0
DICPCG:  Solving for p, Initial residual = 1.44669e-06, Final residual = 8.46429e-07, No Iterations 3
time step continuity errors : sum local = 2.079e-09, global = -7.24817e-21, cumulative = 7.75066e-19
DICPCG:  Solving for p, Initial residual = 1.39669e-06, Final residual = 6.26012e-07, No Iterations 2
time step continuity errors : sum local = 1.58986e-09, global = -3.75173e-19, cumulative = 3.99893e-19
ExecutionTime = 0.07 s  ClockTime = 1 s

Time = 0.6125

Courant Number mean: 0.224818 max: 0.926445
smoothSolver:  Solving for Ux, Initial residual = 5.00578e-06, Final residual = 5.00578e-06, No Iterations 0
smoothSolver:  Solving for Uy, Initial residual = 7.0458e-06, Final residual = 7.0458e-06, No Iterations 0
DICPCG:  Solving for p, Initial residual = 1.20882e-06, Final residual = 8.28747e-07, No Iterations 1
time step continuity errors : sum local = 2.02984e-09, global = 1.27107e-19, cumulative = 5.26999e-19
DICPCG:  Solving for p, Initial residual = 1.08148e-06, Final residual = 8.46721e-07, No Iterations 1
time step continuity errors : sum local = 2.06353e-09, global = 3.19752e-19, cumulative = 8.46751e-19
ExecutionTime = 0.07 s  ClockTime = 1 s

Time = 0.615

Courant Number mean: 0.224818 max: 0.926445
smoothSolver:  Solving for Ux, Initial residual = 4.87501e-06, Final residual = 4.87501e-06, No Iterations 0
smoothSolver:  Solving for Uy, Initial residual = 6.90826e-06, Final residual = 6.90826e-06, No Iterations 0
DICPCG:  Solving for p, Initial residual = 1.26567e-06, Final residual = 6.33542e-07, No Iterations 2
time step continuity errors : sum local = 1.58738e-09, global = -8.04433e-21, cumulative = 8.38707e-19
DICPCG:  Solving for p, Initial residual = 8.85495e-07, Final residual = 8.85495e-07, No Iterations 0
time step continuity errors : sum local = 2.1436e-09, global = -6.46597e-20, cumulative = 7.74047e-19
ExecutionTime = 0.07 s  ClockTime = 1 s

Time = 0.6175

Courant Number mean: 0.224818 max: 0.926445
smoothSolver:  Solving for Ux, Initial residual = 4.71725e-06, Final residual = 4.71725e-06, No Iterations 0
smoothSolver:  Solving for Uy, Initial residual = 6.71045e-06, Final residual = 6.71045e-06, No Iterations 0
DICPCG:  Solving for p, Initial residual = 1.16502e-06, Final residual = 9.94974e-07, No Iterations 2
time step continuity errors : sum local = 2.39132e-09, global = 3.3797e-19, cumulative = 1.11202e-18
DICPCG:  Solving for p, Initial residual = 1.6708e-06, Final residual = 9.13943e-07, No Iterations 2
time step continuity errors : sum local = 2.21389e-09, global = -1.58891e-19, cumulative = 9.53127e-19
ExecutionTime = 0.07 s  ClockTime = 1 s

Time = 0.62

Courant Number mean: 0.224819 max: 0.926445
smoothSolver:  Solving for Ux, Initial residual = 4.59638e-06, Final residual = 4.59638e-06, No Iterations 0
smoothSolver:  Solving for Uy, Initial residual = 6.56117e-06, Final residual = 6.56117e-06, No Iterations 0
DICPCG:  Solving for p, Initial residual = 1.46821e-06, Final residual = 6.8274e-07, No Iterations 7
time step continuity errors : sum local = 1.78719e-09, global = 4.21216e-19, cumulative = 1.37434e-18
DICPCG:  Solving for p, Initial residual = 1.23401e-06, Final residual = 7.1854e-07, No Iterations 4
time step continuity errors : sum local = 1.87218e-09, global = -2.2597e-19, cumulative = 1.14837e-18
ExecutionTime = 0.08 s  ClockTime = 1 s

Time = 0.6225

Courant Number mean: 0.224819 max: 0.926446
smoothSolver:  Solving for Ux, Initial residual = 4.52353e-06, Final residual = 4.52353e-06, No Iterations 0
smoothSolver:  Solving for Uy, Initial residual = 6.37669e-06, Final residual = 6.37669e-06, No Iterations 0
DICPCG:  Solving for p, Initial residual = 1.36666e-06, Final residual = 9.49136e-07, No Iterations 3
time step continuity errors : sum local = 2.35912e-09, global = -1.32711e-20, cumulative = 1.1351e-18
DICPCG:  Solving for p, Initial residual = 1.56842e-06, Final residual = 8.62537e-07, No Iterations 2
time step continuity errors : sum local = 2.19074e-09, global = -1.5445e-19, cumulative = 9.80651e-19
ExecutionTime = 0.08 s  ClockTime = 1 s

Time = 0.625

Courant Number mean: 0.224819 max: 0.926446
smoothSolver:  Solving for Ux, Initial residual = 4.37878e-06, Final residual = 4.37878e-06, No Iterations 0
smoothSolver:  Solving for Uy, Initial residual = 6.18105e-06, Final residual = 6.18105e-06, No Iterations 0
DICPCG:  Solving for p, Initial residual = 1.48438e-06, Final residual = 8.78314e-07, No Iterations 2
time step continuity errors : sum local = 2.21016e-09, global = -8.69057e-20, cumulative = 8.93745e-19
DICPCG:  Solving for p, Initial residual = 1.53666e-06, Final residual = 9.23528e-07, No Iterations 1
time step continuity errors : sum local = 2.31104e-09, global = -1.57433e-19, cumulative = 7.36312e-19
ExecutionTime = 0.08 s  ClockTime = 1 s

Time = 0.6275

Courant Number mean: 0.224819 max: 0.926446
smoothSolver:  Solving for Ux, Initial residual = 4.26711e-06, Final residual = 4.26711e-06, No Iterations 0
smoothSolver:  Solving for Uy, Initial residual = 6.05869e-06, Final residual = 6.05869e-06, No Iterations 0
DICPCG:  Solving for p, Initial residual = 1.23134e-06, Final residual = 7.81131e-07, No Iterations 1
time step continuity errors : sum local = 1.9924e-09, global = 2.93215e-19, cumulative = 1.02953e-18
DICPCG:  Solving for p, Initial residual = 1.01567e-06, Final residual = 8.6282e-07, No Iterations 1
time step continuity errors : sum local = 2.17043e-09, global = -3.82375e-19, cumulative = 6.47153e-19
ExecutionTime = 0.08 s  ClockTime = 1 s

Time = 0.63

Courant Number mean: 0.22482 max: 0.926446
smoothSolver:  Solving for Ux, Initial residual = 4.14926e-06, Final residual = 4.14926e-06, No Iterations 0
smoothSolver:  Solving for Uy, Initial residual = 5.90719e-06, Final residual = 5.90719e-06, No Iterations 0
DICPCG:  Solving for p, Initial residual = 1.04741e-06, Final residual = 8.9654e-07, No Iterations 1
time step continuity errors : sum local = 2.24154e-09, global = 1.67613e-19, cumulative = 8.14765e-19
DICPCG:  Solving for p, Initial residual = 1.15245e-06, Final residual = 9.16389e-07, No Iterations 1
time step continuity errors : sum local = 2.2823e-09, global = -2.83278e-19, cumulative = 5.31487e-19
ExecutionTime = 0.08 s  ClockTime = 1 s

Time = 0.6325

Courant Number mean: 0.22482 max: 0.926446
smoothSolver:  Solving for Ux, Initial residual = 4.03273e-06, Final residual = 4.03273e-06, No Iterations 0
smoothSolver:  Solving for Uy, Initial residual = 5.76361e-06, Final residual = 5.76361e-06, No Iterations 0
DICPCG:  Solving for p, Initial residual = 1.17156e-06, Final residual = 6.9234e-07, No Iterations 2
time step continuity errors : sum local = 1.76878e-09, global = -2.79422e-19, cumulative = 2.52065e-19
DICPCG:  Solving for p, Initial residual = 1.20408e-06, Final residual = 7.32254e-07, No Iterations 2
time step continuity errors : sum local = 1.86924e-09, global = 4.81936e-20, cumulative = 3.00259e-19
ExecutionTime = 0.08 s  ClockTime = 1 s

Time = 0.635

Courant Number mean: 0.22482 max: 0.926446
smoothSolver:  Solving for Ux, Initial residual = 3.94644e-06, Final residual = 3.94644e-06, No Iterations 0
smoothSolver:  Solving for Uy, Initial residual = 5.64534e-06, Final residual = 5.64534e-06, No Iterations 0
DICPCG:  Solving for p, Initial residual = 1.38528e-06, Final residual = 9.98764e-07, No Iterations 1
time step continuity errors : sum local = 2.45601e-09, global = -2.5366e-19, cumulative = 4.65987e-20
DICPCG:  Solving for p, Initial residual = 1.36376e-06, Final residual = 8.65759e-07, No Iterations 7
time step continuity errors : sum local = 2.20872e-09, global = -5.18203e-19, cumulative = -4.71604e-19
ExecutionTime = 0.08 s  ClockTime = 1 s

Time = 0.6375

Courant Number mean: 0.22482 max: 0.926447
smoothSolver:  Solving for Ux, Initial residual = 3.87062e-06, Final residual = 3.87062e-06, No Iterations 0
smoothSolver:  Solving for Uy, Initial residual = 5.52382e-06, Final residual = 5.52382e-06, No Iterations 0
DICPCG:  Solving for p, Initial residual = 1.44672e-06, Final residual = 6.98982e-07, No Iterations 4
time step continuity errors : sum local = 1.84465e-09, global = -5.60642e-19, cumulative = -1.03225e-18
DICPCG:  Solving for p, Initial residual = 1.17411e-06, Final residual = 9.6247e-07, No Iterations 3
time step continuity errors : sum local = 2.42135e-09, global = 3.70546e-19, cumulative = -6.61701e-19
ExecutionTime = 0.08 s  ClockTime = 1 s

Time = 0.64

Courant Number mean: 0.22482 max: 0.926447
smoothSolver:  Solving for Ux, Initial residual = 3.74933e-06, Final residual = 3.74933e-06, No Iterations 0
smoothSolver:  Solving for Uy, Initial residual = 5.32443e-06, Final residual = 5.32443e-06, No Iterations 0
DICPCG:  Solving for p, Initial residual = 1.5835e-06, Final residual = 9.79503e-07, No Iterations 2
time step continuity errors : sum local = 2.48628e-09, global = 1.75776e-20, cumulative = -6.44123e-19
DICPCG:  Solving for p, Initial residual = 1.73233e-06, Final residual = 8.34234e-07, No Iterations 2
time step continuity errors : sum local = 2.14333e-09, global = 1.56249e-19, cumulative = -4.87874e-19
ExecutionTime = 0.08 s  ClockTime = 1 s

Time = 0.6425

Courant Number mean: 0.224821 max: 0.926447
smoothSolver:  Solving for Ux, Initial residual = 3.64788e-06, Final residual = 3.64788e-06, No Iterations 0
smoothSolver:  Solving for Uy, Initial residual = 5.21242e-06, Final residual = 5.21242e-06, No Iterations 0
DICPCG:  Solving for p, Initial residual = 1.55021e-06, Final residual = 8.9255e-07, No Iterations 1
time step continuity errors : sum local = 2.27542e-09, global = -5.42961e-19, cumulative = -1.03084e-18
DICPCG:  Solving for p, Initial residual = 1.17542e-06, Final residual = 7.33545e-07, No Iterations 1
time step continuity errors : sum local = 1.92193e-09, global = 3.5486e-20, cumulative = -9.95349e-19
ExecutionTime = 0.08 s  ClockTime = 1 s

Time = 0.645

Courant Number mean: 0.224821 max: 0.926447
smoothSolver:  Solving for Ux, Initial residual = 3.55191e-06, Final residual = 3.55191e-06, No Iterations 0
smoothSolver:  Solving for Uy, Initial residual = 5.08944e-06, Final residual = 5.08944e-06, No Iterations 0
DICPCG:  Solving for p, Initial residual = 9.71713e-07, Final residual = 9.71713e-07, No Iterations 0
time step continuity errors : sum local = 2.44665e-09, global = 5.41007e-19, cumulative = -4.54342e-19
DICPCG:  Solving for p, Initial residual = 1.21378e-06, Final residual = 8.5729e-07, No Iterations 3
time step continuity errors : sum local = 2.17862e-09, global = 8.78518e-19, cumulative = 4.24176e-19
ExecutionTime = 0.08 s  ClockTime = 1 s

Time = 0.6475

Courant Number mean: 0.224821 max: 0.926447
smoothSolver:  Solving for Ux, Initial residual = 3.4072e-06, Final residual = 3.4072e-06, No Iterations 0
smoothSolver:  Solving for Uy, Initial residual = 4.88157e-06, Final residual = 4.88157e-06, No Iterations 0
DICPCG:  Solving for p, Initial residual = 1.38755e-06, Final residual = 7.20799e-07, No Iterations 2
time step continuity errors : sum local = 1.87599e-09, global = 2.66735e-19, cumulative = 6.9091e-19
DICPCG:  Solving for p, Initial residual = 1.31894e-06, Final residual = 8.01395e-07, No Iterations 1
time step continuity errors : sum local = 2.05836e-09, global = 1.87879e-19, cumulative = 8.78789e-19
ExecutionTime = 0.08 s  ClockTime = 1 s

Time = 0.65

Courant Number mean: 0.224821 max: 0.926447
smoothSolver:  Solving for Ux, Initial residual = 3.35729e-06, Final residual = 3.35729e-06, No Iterations 0
smoothSolver:  Solving for Uy, Initial residual = 4.81494e-06, Final residual = 4.81494e-06, No Iterations 0
DICPCG:  Solving for p, Initial residual = 1.20349e-06, Final residual = 6.33993e-07, No Iterations 1
time step continuity errors : sum local = 1.68974e-09, global = -1.53271e-19, cumulative = 7.25518e-19
DICPCG:  Solving for p, Initial residual = 8.85832e-07, Final residual = 8.85832e-07, No Iterations 0
time step continuity errors : sum local = 2.24571e-09, global = 3.346e-19, cumulative = 1.06012e-18
ExecutionTime = 0.08 s  ClockTime = 1 s

Time = 0.6525

Courant Number mean: 0.224821 max: 0.926447
smoothSolver:  Solving for Ux, Initial residual = 3.26785e-06, Final residual = 3.26785e-06, No Iterations 0
smoothSolver:  Solving for Uy, Initial residual = 4.70441e-06, Final residual = 4.70441e-06, No Iterations 0
DICPCG:  Solving for p, Initial residual = 1.23742e-06, Final residual = 7.31835e-07, No Iterations 7
time step continuity errors : sum local = 1.9786e-09, global = 2.83284e-19, cumulative = 1.3434e-18
DICPCG:  Solving for p, Initial residual = 1.23113e-06, Final residual = 8.5444e-07, No Iterations 4
time step continuity errors : sum local = 2.23896e-09, global = -2.7694e-19, cumulative = 1.06646e-18
ExecutionTime = 0.08 s  ClockTime = 1 s

Time = 0.655

Courant Number mean: 0.224822 max: 0.926447
smoothSolver:  Solving for Ux, Initial residual = 3.24564e-06, Final residual = 3.24564e-06, No Iterations 0
smoothSolver:  Solving for Uy, Initial residual = 4.55479e-06, Final residual = 4.55479e-06, No Iterations 0
DICPCG:  Solving for p, Initial residual = 1.49101e-06, Final residual = 9.65985e-07, No Iterations 7
time step continuity errors : sum local = 2.46461e-09, global = 3.70318e-20, cumulative = 1.10349e-18
DICPCG:  Solving for p, Initial residual = 1.55541e-06, Final residual = 9.64399e-07, No Iterations 2
time step continuity errors : sum local = 2.42931e-09, global = 1.53246e-19, cumulative = 1.25674e-18
ExecutionTime = 0.08 s  ClockTime = 1 s

Time = 0.6575

Courant Number mean: 0.224822 max: 0.926447
smoothSolver:  Solving for Ux, Initial residual = 3.09161e-06, Final residual = 3.09161e-06, No Iterations 0
smoothSolver:  Solving for Uy, Initial residual = 4.46449e-06, Final residual = 4.46449e-06, No Iterations 0
DICPCG:  Solving for p, Initial residual = 1.56e-06, Final residual = 8.89393e-07, No Iterations 2
time step continuity errors : sum local = 2.27109e-09, global = -1.5339e-19, cumulative = 1.10335e-18
DICPCG:  Solving for p, Initial residual = 1.44737e-06, Final residual = 9.40921e-07, No Iterations 1
time step continuity errors : sum local = 2.37544e-09, global = 5.87298e-19, cumulative = 1.69065e-18
ExecutionTime = 0.09 s  ClockTime = 1 s

Time = 0.66

Courant Number mean: 0.224822 max: 0.926448
smoothSolver:  Solving for Ux, Initial residual = 3.02161e-06, Final residual = 3.02161e-06, No Iterations 0
smoothSolver:  Solving for Uy, Initial residual = 4.3521e-06, Final residual = 4.3521e-06, No Iterations 0
DICPCG:  Solving for p, Initial residual = 1.22725e-06, Final residual = 8.84326e-07, No Iterations 1
time step continuity errors : sum local = 2.24544e-09, global = 6.14595e-20, cumulative = 1.75211e-18
DICPCG:  Solving for p, Initial residual = 1.15217e-06, Final residual = 7.87992e-07, No Iterations 7
time step continuity errors : sum local = 2.02091e-09, global = 7.29165e-19, cumulative = 2.48127e-18
ExecutionTime = 0.09 s  ClockTime = 1 s

Time = 0.6625

Courant Number mean: 0.224822 max: 0.926448
smoothSolver:  Solving for Ux, Initial residual = 3.00225e-06, Final residual = 3.00225e-06, No Iterations 0
smoothSolver:  Solving for Uy, Initial residual = 4.12068e-06, Final residual = 4.12068e-06, No Iterations 0
DICPCG:  Solving for p, Initial residual = 1.41123e-06, Final residual = 8.82105e-07, No Iterations 4
time step continuity errors : sum local = 2.27732e-09, global = -4.38819e-19, cumulative = 2.04245e-18
DICPCG:  Solving for p, Initial residual = 1.44352e-06, Final residual = 8.72956e-07, No Iterations 2
time step continuity errors : sum local = 2.25934e-09, global = -1.65193e-19, cumulative = 1.87726e-18
ExecutionTime = 0.09 s  ClockTime = 1 s

Time = 0.665

Courant Number mean: 0.224822 max: 0.926448
smoothSolver:  Solving for Ux, Initial residual = 2.89279e-06, Final residual = 2.89279e-06, No Iterations 0
smoothSolver:  Solving for Uy, Initial residual = 4.14351e-06, Final residual = 4.14351e-06, No Iterations 0
DICPCG:  Solving for p, Initial residual = 1.64004e-06, Final residual = 9.20516e-07, No Iterations 6
time step continuity errors : sum local = 2.34341e-09, global = 4.49728e-19, cumulative = 2.32699e-18
DICPCG:  Solving for p, Initial residual = 1.40414e-06, Final residual = 9.33557e-07, No Iterations 3
time step continuity errors : sum local = 2.33973e-09, global = -1.26292e-18, cumulative = 1.06407e-18
ExecutionTime = 0.09 s  ClockTime = 1 s

Time = 0.6675

Courant Number mean: 0.224822 max: 0.926448
smoothSolver:  Solving for Ux, Initial residual = 2.79798e-06, Final residual = 2.79798e-06, No Iterations 0
smoothSolver:  Solving for Uy, Initial residual = 4.09993e-06, Final residual = 4.09993e-06, No Iterations 0
DICPCG:  Solving for p, Initial residual = 1.5763e-06, Final residual = 7.80825e-07, No Iterations 2
time step continuity errors : sum local = 2.01345e-09, global = -2.63938e-19, cumulative = 8.00129e-19
DICPCG:  Solving for p, Initial residual = 1.30757e-06, Final residual = 9.36804e-07, No Iterations 2
time step continuity errors : sum local = 2.35282e-09, global = -5.21486e-20, cumulative = 7.47981e-19
ExecutionTime = 0.09 s  ClockTime = 1 s

Time = 0.67

Courant Number mean: 0.224822 max: 0.926448
smoothSolver:  Solving for Ux, Initial residual = 2.71739e-06, Final residual = 2.71739e-06, No Iterations 0
smoothSolver:  Solving for Uy, Initial residual = 3.98382e-06, Final residual = 3.98382e-06, No Iterations 0
DICPCG:  Solving for p, Initial residual = 1.49716e-06, Final residual = 9.85207e-07, No Iterations 2
time step continuity errors : sum local = 2.45462e-09, global = 3.05405e-19, cumulative = 1.05339e-18
DICPCG:  Solving for p, Initial residual = 1.60721e-06, Final residual = 8.24068e-07, No Iterations 5
time step continuity errors : sum local = 2.08276e-09, global = 6.21518e-19, cumulative = 1.6749e-18
ExecutionTime = 0.09 s  ClockTime = 1 s

Time = 0.6725

Courant Number mean: 0.224823 max: 0.926448
smoothSolver:  Solving for Ux, Initial residual = 2.69144e-06, Final residual = 2.69144e-06, No Iterations 0
smoothSolver:  Solving for Uy, Initial residual = 3.75772e-06, Final residual = 3.75772e-06, No Iterations 0
DICPCG:  Solving for p, Initial residual = 1.40559e-06, Final residual = 6.09862e-07, No Iterations 5
time step continuity errors : sum local = 1.6555e-09, global = -3.7447e-19, cumulative = 1.30043e-18
DICPCG:  Solving for p, Initial residual = 1.02823e-06, Final residual = 5.38113e-07, No Iterations 3
time step continuity errors : sum local = 1.48186e-09, global = -4.6684e-21, cumulative = 1.29577e-18
ExecutionTime = 0.09 s  ClockTime = 1 s

Time = 0.675

Courant Number mean: 0.224823 max: 0.926448
smoothSolver:  Solving for Ux, Initial residual = 2.57931e-06, Final residual = 2.57931e-06, No Iterations 0
smoothSolver:  Solving for Uy, Initial residual = 3.71104e-06, Final residual = 3.71104e-06, No Iterations 0
DICPCG:  Solving for p, Initial residual = 9.60482e-07, Final residual = 9.60482e-07, No Iterations 0
time step continuity errors : sum local = 2.4143e-09, global = -1.16379e-19, cumulative = 1.17939e-18
DICPCG:  Solving for p, Initial residual = 1.35613e-06, Final residual = 8.97559e-07, No Iterations 2
time step continuity errors : sum local = 2.29101e-09, global = -2.99114e-19, cumulative = 8.80273e-19
ExecutionTime = 0.09 s  ClockTime = 1 s

Time = 0.6775

Courant Number mean: 0.224823 max: 0.926448
smoothSolver:  Solving for Ux, Initial residual = 2.55778e-06, Final residual = 2.55778e-06, No Iterations 0
smoothSolver:  Solving for Uy, Initial residual = 3.66931e-06, Final residual = 3.66931e-06, No Iterations 0
DICPCG:  Solving for p, Initial residual = 1.80099e-06, Final residual = 9.60901e-07, No Iterations 1
time step continuity errors : sum local = 2.42403e-09, global = -1.08986e-19, cumulative = 7.71286e-19
DICPCG:  Solving for p, Initial residual = 1.22729e-06, Final residual = 7.09081e-07, No Iterations 1
time step continuity errors : sum local = 1.87856e-09, global = 6.24919e-19, cumulative = 1.39621e-18
ExecutionTime = 0.09 s  ClockTime = 1 s

Time = 0.68

Courant Number mean: 0.224823 max: 0.926448
smoothSolver:  Solving for Ux, Initial residual = 2.47241e-06, Final residual = 2.47241e-06, No Iterations 0
smoothSolver:  Solving for Uy, Initial residual = 3.55642e-06, Final residual = 3.55642e-06, No Iterations 0
DICPCG:  Solving for p, Initial residual = 9.89985e-07, Final residual = 9.89985e-07, No Iterations 0
time step continuity errors : sum local = 2.4987e-09, global = -5.46043e-19, cumulative = 8.50163e-19
DICPCG:  Solving for p, Initial residual = 1.30383e-06, Final residual = 8.35642e-07, No Iterations 2
time step continuity errors : sum local = 2.15154e-09, global = 4.41611e-19, cumulative = 1.29177e-18
ExecutionTime = 0.09 s  ClockTime = 1 s

Time = 0.6825

Courant Number mean: 0.224823 max: 0.926448
smoothSolver:  Solving for Ux, Initial residual = 2.36055e-06, Final residual = 2.36055e-06, No Iterations 0
smoothSolver:  Solving for Uy, Initial residual = 3.41188e-06, Final residual = 3.41188e-06, No Iterations 0
DICPCG:  Solving for p, Initial residual = 1.55769e-06, Final residual = 8.52802e-07, No Iterations 1
time step continuity errors : sum local = 2.1829e-09, global = 8.21437e-19, cumulative = 2.11321e-18
DICPCG:  Solving for p, Initial residual = 1.46856e-06, Final residual = 7.04582e-07, No Iterations 1
time step continuity errors : sum local = 1.85513e-09, global = 2.02204e-19, cumulative = 2.31542e-18
ExecutionTime = 0.09 s  ClockTime = 1 s

Time = 0.685

Courant Number mean: 0.224823 max: 0.926449
smoothSolver:  Solving for Ux, Initial residual = 2.31947e-06, Final residual = 2.31947e-06, No Iterations 0
smoothSolver:  Solving for Uy, Initial residual = 3.34723e-06, Final residual = 3.34723e-06, No Iterations 0
DICPCG:  Solving for p, Initial residual = 9.96385e-07, Final residual = 9.96385e-07, No Iterations 0
time step continuity errors : sum local = 2.49726e-09, global = 2.36367e-19, cumulative = 2.55178e-18
DICPCG:  Solving for p, Initial residual = 1.21478e-06, Final residual = 8.49592e-07, No Iterations 1
time step continuity errors : sum local = 2.17299e-09, global = 1.18044e-19, cumulative = 2.66983e-18
ExecutionTime = 0.09 s  ClockTime = 1 s

Time = 0.6875

Courant Number mean: 0.224823 max: 0.926449
smoothSolver:  Solving for Ux, Initial residual = 2.27436e-06, Final residual = 2.27436e-06, No Iterations 0
smoothSolver:  Solving for Uy, Initial residual = 3.2969e-06, Final residual = 3.2969e-06, No Iterations 0
DICPCG:  Solving for p, Initial residual = 1.29656e-06, Final residual = 6.62052e-07, No Iterations 1
time step continuity errors : sum local = 1.75936e-09, global = 4.1297e-20, cumulative = 2.71112e-18
DICPCG:  Solving for p, Initial residual = 8.22227e-07, Final residual = 8.22227e-07, No Iterations 0
time step continuity errors : sum local = 2.11267e-09, global = 3.5636e-20, cumulative = 2.74676e-18
ExecutionTime = 0.09 s  ClockTime = 1 s

Time = 0.69

Courant Number mean: 0.224824 max: 0.926449
smoothSolver:  Solving for Ux, Initial residual = 2.21369e-06, Final residual = 2.21369e-06, No Iterations 0
smoothSolver:  Solving for Uy, Initial residual = 3.21741e-06, Final residual = 3.21741e-06, No Iterations 0
DICPCG:  Solving for p, Initial residual = 1.03169e-06, Final residual = 9.92528e-07, No Iterations 6
time step continuity errors : sum local = 2.49704e-09, global = -6.33626e-19, cumulative = 2.11313e-18
DICPCG:  Solving for p, Initial residual = 1.58986e-06, Final residual = 8.05201e-07, No Iterations 4
time step continuity errors : sum local = 2.10749e-09, global = 5.80055e-19, cumulative = 2.69319e-18
ExecutionTime = 0.09 s  ClockTime = 1 s

Time = 0.6925

Courant Number mean: 0.224824 max: 0.926449
smoothSolver:  Solving for Ux, Initial residual = 2.1856e-06, Final residual = 2.1856e-06, No Iterations 0
smoothSolver:  Solving for Uy, Initial residual = 3.0952e-06, Final residual = 3.0952e-06, No Iterations 0
DICPCG:  Solving for p, Initial residual = 1.44108e-06, Final residual = 7.89619e-07, No Iterations 2
time step continuity errors : sum local = 2.0891e-09, global = -6.7105e-20, cumulative = 2.62608e-18
DICPCG:  Solving for p, Initial residual = 1.40879e-06, Final residual = 8.73441e-07, No Iterations 2
time step continuity errors : sum local = 2.25919e-09, global = -3.15414e-19, cumulative = 2.31067e-18
ExecutionTime = 0.09 s  ClockTime = 1 s

Time = 0.695

Courant Number mean: 0.224824 max: 0.926449
smoothSolver:  Solving for Ux, Initial residual = 2.11573e-06, Final residual = 2.11573e-06, No Iterations 0
smoothSolver:  Solving for Uy, Initial residual = 3.03525e-06, Final residual = 3.03525e-06, No Iterations 0
DICPCG:  Solving for p, Initial residual = 1.53142e-06, Final residual = 7.91915e-07, No Iterations 6
time step continuity errors : sum local = 2.05106e-09, global = -3.72262e-19, cumulative = 1.93841e-18
DICPCG:  Solving for p, Initial residual = 1.2857e-06, Final residual = 9.85975e-07, No Iterations 3
time step continuity errors : sum local = 2.46516e-09, global = -6.2616e-19, cumulative = 1.31225e-18
ExecutionTime = 0.1 s  ClockTime = 1 s

Time = 0.6975

Courant Number mean: 0.224824 max: 0.926449
smoothSolver:  Solving for Ux, Initial residual = 2.04804e-06, Final residual = 2.04804e-06, No Iterations 0
smoothSolver:  Solving for Uy, Initial residual = 3.01675e-06, Final residual = 3.01675e-06, No Iterations 0
DICPCG:  Solving for p, Initial residual = 1.63882e-06, Final residual = 9.69987e-07, No Iterations 4
time step continuity errors : sum local = 2.40118e-09, global = 2.57062e-19, cumulative = 1.56931e-18
DICPCG:  Solving for p, Initial residual = 1.56858e-06, Final residual = 9.40755e-07, No Iterations 3
time step continuity errors : sum local = 2.34878e-09, global = -3.28835e-19, cumulative = 1.24047e-18
ExecutionTime = 0.1 s  ClockTime = 1 s

Time = 0.7

Courant Number mean: 0.224824 max: 0.926449
smoothSolver:  Solving for Ux, Initial residual = 2.01634e-06, Final residual = 2.01634e-06, No Iterations 0
smoothSolver:  Solving for Uy, Initial residual = 2.90804e-06, Final residual = 2.90804e-06, No Iterations 0
DICPCG:  Solving for p, Initial residual = 1.54873e-06, Final residual = 5.17752e-07, No Iterations 8
time step continuity errors : sum local = 1.44441e-09, global = -3.46956e-19, cumulative = 8.93518e-19
DICPCG:  Solving for p, Initial residual = 9.02395e-07, Final residual = 9.02395e-07, No Iterations 0
time step continuity errors : sum local = 2.29357e-09, global = -5.41524e-19, cumulative = 3.51994e-19
ExecutionTime = 0.1 s  ClockTime = 1 s

End

